/*--------------------------------*- C++ -*----------------------------------*\
| =========                 |                                                 |
| \\      /  F ield         | OpenFOAM: The Open Source CFD Toolbox           |
|  \\    /   O peration     | Version:  v2401                                 |
|   \\  /    A nd           | Website:  www.openfoam.com                      |
|    \\/     M anipulation  |                                                 |
\*---------------------------------------------------------------------------*/
FoamFile
{
    version     2.0;
    format      ascii;
    class       volScalarField;
    object      epsilon;
}
// * * * * * * * * * * * * * * * * * * * * * * * * * * * * * * * * * * * * * //

dimensions      [0 2 -3 0 0 0 0];

internalField   uniform 17.83;

boundaryField
{
    inlet
    {

        type            turbulentMixingLengthDissipationRateInlet;
        mixingLength    0.01;       
        value           $internalField;
    }

    outlet
    {
        type            zeroGradient;
    }

    "(lowerWallStartup|upperWallStartup)"
    {
        type            symmetryPlane;
    }

    "(upperWall|lowerWall)"
    {
        type            epsilonWallFunction;
        lowReCorrection true;
        value           $internalField;

    }

    "(front|back)"
    {
        type            empty;
    }
}

// ************************************************************************* //
