/*--------------------------------*- C++ -*----------------------------------*\
| =========                 |                                                 |
| \\      /  F ield         | OpenFOAM: The Open Source CFD Toolbox           |
|  \\    /   O peration     | Version:  v2212                                 |
|   \\  /    A nd           | Website:  www.openfoam.com                      |
|    \\/     M anipulation  |                                                 |
\*---------------------------------------------------------------------------*/
FoamFile
{
    version     2.0;
    format      ascii;
    class       dictionary;
    object      turbulenceProperties;
}
// * * * * * * * * * * * * * * * * * * * * * * * * * * * * * * * * * * * * * //

//simulationType  laminar;
simulationType      RAS;

RAS
{
    // Tested with kEpsilonLagEB, realizableKE, kOmega, kOmegaSST,
    // ShihQuadraticKE, LienCubicKE.
    //RASModel        kEpsilonEB;
    RASModel        kEpsilonLagEB;
    turbulence      on;

    printCoeffs     on;
}


// ************************************************************************* //
